  251
scf done: -6852.766639
Co    -0.098158    -0.113044     0.019800
 O     3.114700     1.324293     6.998247
 O    -3.912952    -2.217180     6.276558
 N     0.834237    -1.092347     1.454423
 N     0.531252    -1.415379    -1.277648
 N     1.723150     1.161436     5.182548
 H     1.698071     1.291214     4.166266
 N    -2.424170    -1.445722     4.703604
 H    -2.221620    -1.442077     3.697984
 C    -0.212699    -0.009533     3.431508
 C     0.628787    -0.960573     2.779434
 C     1.406515    -1.925172     3.539375
 H     1.428469    -2.035625     4.624186
 C     2.086511    -2.682484     2.629725
 H     2.740271    -3.520636     2.866591
 C     1.679887    -2.211228     1.313453
 C     1.940708    -2.888664     0.147269
 C     1.358602    -2.493588    -1.100760
 C     1.388962    -3.292315    -2.274940
 H     1.903523    -4.243954    -2.408632
 C     0.549554    -2.698019    -3.182594
 H     0.280210    -3.081958    -4.167225
 C     0.004969    -1.556749    -2.548264
 C    -0.380943    -0.071713     4.937627
 C     0.587656     0.551071     5.781505
 C     0.419433     0.529095     7.182506
 H     1.133643     1.009591     7.844600
 C    -0.687041    -0.108399     7.741113
 H    -0.809682    -0.119341     8.828333
 C    -1.633028    -0.749346     6.942427
 H    -2.458264    -1.250666     7.436276
 C    -1.497139    -0.748852     5.533955
 C     2.911844     1.493865     5.797057
 C     4.001422     1.977864     4.877222
 H     3.824248     1.888005     3.787216
 C     5.444446     2.121186     5.398397
 H     6.091922     1.689194     4.614480
 H     5.500968     1.715396     6.423965
 C     4.608349     3.358482     5.175598
 C     4.935989     4.220559     3.987396
 C     6.262697     4.473603     3.588845
 H     7.091984     3.974917     4.097354
 C     6.529046     5.379204     2.552079
 H     7.560696     5.571233     2.245567
 C     5.475494     6.060989     1.928099
 H     5.690505     6.786492     1.137512
 C     4.150960     5.809546     2.321801
 H     3.318882     6.336336     1.849597
 C     3.882596     4.882248     3.331161
 H     2.846397     4.698495     3.633609
 C     4.212079     4.164298     6.413512
 H     5.034473     4.871645     6.651601
 H     4.030315     3.530811     7.300353
 H     3.303867     4.767389     6.200696
 C    -3.542377    -2.160573     5.105404
 C    -4.321458    -2.878824     4.031271
 H    -4.081993    -2.657731     2.973664
 C    -5.680140    -3.519667     4.342074
 H    -6.007470    -3.227838     5.356799
 H    -6.359557    -3.380512     3.484342
 C    -4.456796    -4.411030     4.228284
 C    -4.328760    -5.257845     2.982438
 C    -3.102387    -5.302587     2.289342
 H    -2.254164    -4.712156     2.649857
 C    -2.955003    -6.105403     1.148825
 H    -1.996514    -6.134768     0.622813
 C    -4.034226    -6.873007     0.686356
 H    -3.920170    -7.499072    -0.203141
 C    -5.258525    -6.837803     1.371180
 H    -6.100840    -7.437310     1.013909
 C    -5.405208    -6.038313     2.515521
 H    -6.362379    -6.021743     3.045166
 C    -4.079389    -5.135103     5.524770
 H    -4.691190    -6.058083     5.612503
 H    -4.257747    -4.518906     6.425811
 H    -3.010753    -5.437151     5.503486
 C     2.694130    -4.170999     0.212624
 C     2.179703    -5.217968     1.004265
 C     2.835482    -6.459116     1.099387
 C     4.041415    -6.622466     0.378779
 H     4.576104    -7.566020     0.442126
 C     4.574574    -5.590914    -0.426646
 C     3.872499    -4.375073    -0.508026
 O     1.375200     0.845300    -7.214885
 O    -5.395401    -2.904332    -5.169104
 N    -1.293262     0.840782    -1.275824
 N    -0.826052     1.210187     1.367616
 N     0.550803     0.046256    -5.223424
 H     0.713503     0.123602    -4.212404
 N    -3.669017    -2.060439    -3.905286
 H    -3.385955    -1.844202    -2.943585
 C    -1.060169    -0.784316    -3.154178
 C    -1.605830     0.318559    -2.550937
 C    -2.548516     1.188789    -3.227205
 H    -2.954025     1.071830    -4.231845
 C    -2.786270     2.225148    -2.381051
 H    -3.428897     3.076702    -2.593404
 C    -2.033927     1.957574    -1.158022
 C    -2.180437     2.760560     0.009706
 C    -1.633705     2.324264     1.192887
 C    -1.985845     2.900453     2.442905
 H    -2.632137     3.759889     2.616290
 C    -1.481784     2.085371     3.407383
 H    -1.627969     2.199524     4.481734
 C    -0.782479     1.041229     2.742584
 C    -1.480717    -1.128692    -4.570969
 C    -0.593978    -0.694179    -5.609868
 C    -0.911654    -0.939984    -6.961797
 H    -0.264091    -0.619252    -7.772087
 C    -2.098450    -1.595979    -7.280620
 H    -2.342639    -1.784658    -8.330728
 C    -3.003129    -1.982789    -6.293673
 H    -3.924469    -2.452389    -6.618252
 C    -2.726058    -1.740229    -4.925249
 C     1.468933     0.722029    -5.995480
 C     2.650509     1.245528    -5.224282
 H     2.574382     1.209023    -4.120898
 C     3.803432     2.034225    -5.873228
 H     4.133802     2.777385    -5.125868
 H     3.471686     2.383030    -6.867895
 C     3.946937     0.543860    -5.659249
 C     4.870210     0.007498    -4.605104
 C     6.229530     0.369872    -4.575310
 H     6.596273     1.168394    -5.225948
 C     7.133475    -0.351798    -3.783928
 H     8.197091    -0.102902    -3.799112
 C     6.679930    -1.428009    -3.012529
 H     7.398054    -2.025262    -2.458455
 C     5.312270    -1.728171    -2.960567
 H     4.946503    -2.537764    -2.326564
 C     4.410829    -1.023510    -3.763483
 H     3.354735    -1.313897    -3.774686
 C     4.059231    -0.310879    -6.929335
 H     5.121714    -0.318850    -7.252906
 H     3.440520     0.055376    -7.766330
 H     3.777749    -1.360899    -6.697565
 C    -4.939117    -2.590358    -4.071465
 C    -5.769837    -2.776332    -2.828486
 H    -5.271358    -2.654673    -1.848014
 C    -7.122226    -3.492644    -2.856814
 H    -7.223665    -4.014571    -3.826618
 H    -7.242934    -4.064501    -1.921225
 C    -7.093124    -1.970322    -2.845261
 C    -7.503299    -1.306744    -1.551353
 C    -6.661601    -0.346266    -0.956434
 H    -5.706504    -0.094553    -1.428285
 C    -7.042224     0.299845     0.228786
 H    -6.381650     1.046405     0.678729
 C    -8.270088    -0.008499     0.833169
 H    -8.566849     0.495444     1.757133
 C    -9.116264    -0.963172     0.247423
 H   -10.073759    -1.205342     0.717615
 C    -8.737821    -1.606204    -0.940802
 H    -9.405277    -2.346352    -1.392917
 C    -7.752860    -1.374844    -4.095390
 H    -8.855419    -1.389670    -3.963932
 H    -7.506580    -1.934431    -5.017352
 H    -7.441089    -0.317181    -4.231027
 C    -3.068372     3.984545    -0.008008
 C    -4.425117     3.957068    -0.421561
 C    -5.215525     5.134202    -0.429054
 C    -4.609865     6.342980    -0.020066
 H    -5.196688     7.257198    -0.024446
 C    -3.263616     6.402358     0.396238
 C    -2.514987     5.210328     0.400315
 N     1.276883     1.094304    -0.726441
 O     0.438521     2.012211    -2.541901
 C     1.222760     2.075020    -1.601738
 C     5.901222    -5.755235    -1.193426
 C     2.228413    -7.577978     1.975167
 C     6.543445    -7.141250    -0.983294
 H     5.880352    -7.952692    -1.349095
 H     7.500339    -7.203756    -1.541746
 H     6.767903    -7.317213     0.089916
 C     3.118992    -8.840093     2.023097
 H     4.120969    -8.606926     2.441963
 H     2.657586    -9.614823     2.670304
 H     3.248012    -9.284146     1.013465
 C     2.053845    -7.066008     3.426672
 H     3.028843    -6.748010     3.852436
 H     1.358342    -6.203016     3.481953
 H     1.633515    -7.864345     4.074909
 C     0.846695    -7.988698     1.408693
 H     0.133797    -7.138417     1.400121
 H     0.944053    -8.365212     0.368290
 H     0.396000    -8.796119     2.025279
 C     5.648507    -5.564661    -2.710835
 H     4.928149    -6.323662    -3.083230
 H     5.234490    -4.564763    -2.951373
 H     6.594271    -5.669461    -3.283497
 C     6.908544    -4.696691    -0.674609
 H     6.531445    -3.664935    -0.791884
 H     7.098801    -4.837738     0.409993
 H     7.872882    -4.763136    -1.220860
 C    -2.589236     7.720431     0.831963
 C    -6.702954     5.086202    -0.872636
 C    -1.396908     8.011236    -0.112738
 H    -0.641832     7.198870    -0.095914
 H    -1.749579     8.121168    -1.160480
 H    -0.882155     8.949950     0.182755
 C    -3.541619     8.937532     0.780105
 H    -4.410239     8.804311     1.459465
 H    -3.006137     9.855624     1.101315
 H    -3.917984     9.116642    -0.249352
 C    -2.081060     7.577035     2.287470
 H    -2.926518     7.369459     2.977634
 H    -1.347144     6.751737     2.392100
 H    -1.579303     8.510075     2.620881
 C    -7.393783     6.475448    -0.852400
 H    -8.451711     6.388418    -1.180547
 H    -7.407930     6.915657     0.167368
 H    -6.897932     7.190981    -1.542715
 C    -6.810061     4.547183    -2.319293
 H    -6.262566     5.206259    -3.025974
 H    -6.402390     3.519771    -2.407999
 H    -7.873363     4.512923    -2.643540
 C    -7.506501     4.164423     0.075866
 H    -7.118811     3.125683     0.069542
 H    -7.469089     4.548016     1.117773
 H    -8.574956     4.126243    -0.230586
 H     4.247701    -3.555658    -1.123421
 H     1.238896    -5.053922     1.536301
 H    -1.467130     5.224903     0.708393
 H    -4.871587     3.006102    -0.724166
 C     1.629158     3.572004    -1.557626
 C     2.632412     4.130469    -0.726678
 C     0.886974     4.486729    -2.361890
 C     2.961700     5.493414    -0.817345
 H     3.198333     3.526011    -0.013538
 C     1.162258     5.851920    -2.373983
 H     0.058659     4.131066    -2.975524
 C     2.223766     6.359679    -1.625231
 H     3.799155     5.888073    -0.254500
 H     0.547475     6.511649    -2.989317
 H     2.468735     7.423042    -1.660182
 C     7.115406     3.394712    -1.538921
 C     5.856607     2.840790    -1.213951
 C     5.735556     1.622490    -0.460404
 C     6.977451     1.034662    -0.038232
 C     8.229010     1.584310    -0.395744
 C     8.303899     2.758866    -1.153182
 H     7.192825     4.333811    -2.102966
 H     4.975429     3.391566    -1.536204
 H     6.985667     0.108846     0.538560
 H     9.170066     1.094015    -0.108743
 H     9.283876     3.179769    -1.438091
 C     4.414217     1.013723    -0.083587
 H     4.395224     0.361692     0.793609
 C     3.178483     1.202464    -0.845534
 H     3.221330     1.891197    -1.733080
 H     3.135229     0.066022    -1.055975
